This is my note, please read it, thanks!
New line.
